
    CNRS - NERC - Met OFFICE - MERCATOR-ocean - INGV - CMCC
                        NEMO team
             Ocean General Circulation Model
                   version 3.6  (2015) 


  mynode : mpi initialisation                                                    
  ~~~~~~                                                                         
     Namelist nammpp                                                             
        mpi send type                      cn_mpi_send = I                       
        size in bytes of exported buffer   nn_buffer   =            0            
        processor grid extent in i         jpni =           16                   
        processor grid extent in j         jpnj =           34                   
        number of local domains           jpnij =          278                   
        avoid use of mpi_allgather at the north fold  ln_nnogather =  F          
             Immediate non-blocking send (isend)                                 

AAAAAAAA


 nemo_ctl: Control prints & Benchmark
 ~~~~~~~ 
    Namelist namctl
       run control (for debugging)     ln_ctl     =  F
       level of print                  nn_print   =            0
       Start i indice for SUM control  nn_ictls   =            0
       End i indice for SUM control    nn_ictle   =            0
       Start j indice for SUM control  nn_jctls   =            0
       End j indice for SUM control    nn_jctle   =            0
       number of proc. following i     nn_isplt   =            1
       number of proc. following j     nn_jsplt   =            1
       benchmark parameter (0/1)       nn_bench   =            0
       timing activated    (0/1)       nn_timing  =            0

 namcfg  : configuration initialization through namelist read
 ~~~~~~~ 
    Namelist namcfg
       configuration name              cp_cfg      = SalishSea
       configuration zoom name         cp_cfz      = no zoom
       configuration resolution        jp_cfg      =          120
       1st lateral dimension ( >= jpi ) jpidta     =          398
       2nd    "         "    ( >= jpj ) jpjdta     =          898
       3nd    "         "               jpkdta     =           40
       1st dimension of global domain in i jpiglo  =          398
       2nd    -                  -    in j jpjglo  =          898
       left bottom i index of the zoom (in data domain) jpizoom =            1
       left bottom j index of the zoom (in data domain) jpizoom =            1
       lateral cond. type (between 0 and 6) jperio =            0
       use file attribute if exists as i/p j-start ln_use_jattr =  F

 mpp_init : Message Passing MPI
 ~~~~~~~~
  
                     iom_nf90_open ~~~ open existing file: bathy_meter.nc in READ mode
                    ---> bathy_meter.nc OK

 ===>>> : W A R N I N G
         ===============

 iom_nf90_getatt: no attribute open_ocean_jstart found
           read Bathymetry (rec:      1) in bathy_meter.nc ok
                     iom_close ~~~ close file: bathy_meter.nc ok

  mpp_init2: defines mpp subdomains
  ~~~~~~  ----------------------

 iresti=          12  irestj=          12

 jpni=          16  jpnj=          34

  sum ilci(i,1)=   398.00000000000000       jpiglo=         398
  sum ilcj(1,j)=   898.00000000000000       jpjglo=         898


     ****************************************************************
     *              *               *               *               *   
  34 *   27  x 28   *    27  x 28   *    27  x 28   *    27  x 28   *   
     *         -1   *         269   *         270   *         271   *         
     *              *               *               *               *   
     ****************************************************************
     *              *               *               *               *   
  33 *   27  x 28   *    27  x 28   *    27  x 28   *    27  x 28   *   
     *         -1   *          -1   *         262   *         263   *         
     *              *               *               *               *   
     ****************************************************************
     *              *               *               *               *   
  32 *   27  x 28   *    27  x 28   *    27  x 28   *    27  x 28   *   
     *         -1   *          -1   *          -1   *         254   *         
     *              *               *               *               *   
     ****************************************************************
     *              *               *               *               *   
  31 *   27  x 28   *    27  x 28   *    27  x 28   *    27  x 28   *   
     *         -1   *          -1   *          -1   *          -1   *         
     *              *               *               *               *   
     ****************************************************************
     *              *               *               *               *   
  30 *   27  x 28   *    27  x 28   *    27  x 28   *    27  x 28   *   
     *         -1   *          -1   *          -1   *          -1   *         
     *              *               *               *               *   
     ****************************************************************
     *              *               *               *               *   
  29 *   27  x 28   *    27  x 28   *    27  x 28   *    27  x 28   *   
     *         -1   *          -1   *          -1   *          -1   *         
     *              *               *               *               *   
     ****************************************************************
     *              *               *               *               *   
  28 *   27  x 28   *    27  x 28   *    27  x 28   *    27  x 28   *   
     *         -1   *          -1   *          -1   *          -1   *         
     *              *               *               *               *   
     ****************************************************************
     *              *               *               *               *   
  27 *   27  x 28   *    27  x 28   *    27  x 28   *    27  x 28   *   
     *         -1   *          -1   *          -1   *          -1   *         
     *              *               *               *               *   
     ****************************************************************
     *              *               *               *               *   
  26 *   27  x 28   *    27  x 28   *    27  x 28   *    27  x 28   *   
     *         -1   *          -1   *          -1   *          -1   *         
     *              *               *               *               *   
     ****************************************************************
     *              *               *               *               *   
  25 *   27  x 28   *    27  x 28   *    27  x 28   *    27  x 28   *   
     *         -1   *          -1   *          -1   *          -1   *         
     *              *               *               *               *   
     ****************************************************************
     *              *               *               *               *   
  24 *   27  x 28   *    27  x 28   *    27  x 28   *    27  x 28   *   
     *         -1   *          -1   *          -1   *          -1   *         
     *              *               *               *               *   
     ****************************************************************
     *              *               *               *               *   
  23 *   27  x 28   *    27  x 28   *    27  x 28   *    27  x 28   *   
     *         -1   *          -1   *          -1   *          -1   *         
     *              *               *               *               *   
     ****************************************************************
     *              *               *               *               *   
  22 *   27  x 28   *    27  x 28   *    27  x 28   *    27  x 28   *   
     *         -1   *          -1   *          -1   *          -1   *         
     *              *               *               *               *   
     ****************************************************************
     *              *               *               *               *   
  21 *   27  x 28   *    27  x 28   *    27  x 28   *    27  x 28   *   
     *         -1   *          -1   *          -1   *          -1   *         
     *              *               *               *               *   
     ****************************************************************
     *              *               *               *               *   
  20 *   27  x 28   *    27  x 28   *    27  x 28   *    27  x 28   *   
     *         -1   *          -1   *          -1   *          -1   *         
     *              *               *               *               *   
     ****************************************************************
     *              *               *               *               *   
  19 *   27  x 28   *    27  x 28   *    27  x 28   *    27  x 28   *   
     *         -1   *          -1   *          -1   *          -1   *         
     *              *               *               *               *   
     ****************************************************************
     *              *               *               *               *   
  18 *   27  x 28   *    27  x 28   *    27  x 28   *    27  x 28   *   
     *        153   *          -1   *          -1   *          -1   *         
     *              *               *               *               *   
     ****************************************************************
     *              *               *               *               *   
  17 *   27  x 28   *    27  x 28   *    27  x 28   *    27  x 28   *   
     *        144   *          -1   *          -1   *          -1   *         
     *              *               *               *               *   
     ****************************************************************
     *              *               *               *               *   
  16 *   27  x 28   *    27  x 28   *    27  x 28   *    27  x 28   *   
     *        133   *         134   *         135   *          -1   *         
     *              *               *               *               *   
     ****************************************************************
     *              *               *               *               *   
  15 *   27  x 28   *    27  x 28   *    27  x 28   *    27  x 28   *   
     *        122   *         123   *         124   *          -1   *         
     *              *               *               *               *   
     ****************************************************************
     *              *               *               *               *   
  14 *   27  x 28   *    27  x 28   *    27  x 28   *    27  x 28   *   
     *        110   *         111   *         112   *         113   *         
     *              *               *               *               *   
     ****************************************************************
     *              *               *               *               *   
  13 *   27  x 28   *    27  x 28   *    27  x 28   *    27  x 28   *   
     *         -1   *          99   *         100   *         101   *         
     *              *               *               *               *   
     ****************************************************************
     *              *               *               *               *   
  12 *   27  x 29   *    27  x 29   *    27  x 29   *    27  x 29   *   
     *         -1   *          -1   *          86   *          87   *         
     *              *               *               *               *   
     ****************************************************************
     *              *               *               *               *   
  11 *   27  x 29   *    27  x 29   *    27  x 29   *    27  x 29   *   
     *         -1   *          -1   *          73   *          74   *         
     *              *               *               *               *   
     ****************************************************************
     *              *               *               *               *   
  10 *   27  x 29   *    27  x 29   *    27  x 29   *    27  x 29   *   
     *         -1   *          -1   *          -1   *          -1   *         
     *              *               *               *               *   
     ****************************************************************
     *              *               *               *               *   
   9 *   27  x 29   *    27  x 29   *    27  x 29   *    27  x 29   *   
     *         -1   *          -1   *          -1   *          -1   *         
     *              *               *               *               *   
     ****************************************************************
     *              *               *               *               *   
   8 *   27  x 29   *    27  x 29   *    27  x 29   *    27  x 29   *   
     *         -1   *          -1   *          -1   *          -1   *         
     *              *               *               *               *   
     ****************************************************************
     *              *               *               *               *   
   7 *   27  x 29   *    27  x 29   *    27  x 29   *    27  x 29   *   
     *         -1   *          -1   *          -1   *          -1   *         
     *              *               *               *               *   
     ****************************************************************
     *              *               *               *               *   
   6 *   27  x 29   *    27  x 29   *    27  x 29   *    27  x 29   *   
     *         -1   *          -1   *          -1   *          -1   *         
     *              *               *               *               *   
     ****************************************************************
     *              *               *               *               *   
   5 *   27  x 29   *    27  x 29   *    27  x 29   *    27  x 29   *   
     *         -1   *          -1   *          -1   *          -1   *         
     *              *               *               *               *   
     ****************************************************************
     *              *               *               *               *   
   4 *   27  x 29   *    27  x 29   *    27  x 29   *    27  x 29   *   
     *         -1   *          -1   *          -1   *          20   *         
     *              *               *               *               *   
     ****************************************************************
     *              *               *               *               *   
   3 *   27  x 29   *    27  x 29   *    27  x 29   *    27  x 29   *   
     *         -1   *          -1   *          -1   *          13   *         
     *              *               *               *               *   
     ****************************************************************
     *              *               *               *               *   
   2 *   27  x 29   *    27  x 29   *    27  x 29   *    27  x 29   *   
     *         -1   *          -1   *          -1   *           6   *         
     *              *               *               *               *   
     ****************************************************************
     *              *               *               *               *   
   1 *   27  x 29   *    27  x 29   *    27  x 29   *    27  x 29   *   
     *         -1   *          -1   *          -1   *           0   *         
     *              *               *               *               *   
     ****************************************************************
             1               2               3               4             

     ****************************************************************
     *              *               *               *               *   
  34 *   27  x 28   *    27  x 28   *    27  x 28   *    27  x 28   *   
     *        272   *         273   *         274   *         275   *         
     *              *               *               *               *   
     ****************************************************************
     *              *               *               *               *   
  33 *   27  x 28   *    27  x 28   *    27  x 28   *    27  x 28   *   
     *        264   *         265   *         266   *          -1   *         
     *              *               *               *               *   
     ****************************************************************
     *              *               *               *               *   
  32 *   27  x 28   *    27  x 28   *    27  x 28   *    27  x 28   *   
     *        255   *         256   *         257   *         258   *         
     *              *               *               *               *   
     ****************************************************************
     *              *               *               *               *   
  31 *   27  x 28   *    27  x 28   *    27  x 28   *    27  x 28   *   
     *        249   *         250   *         251   *         252   *         
     *              *               *               *               *   
     ****************************************************************
     *              *               *               *               *   
  30 *   27  x 28   *    27  x 28   *    27  x 28   *    27  x 28   *   
     *        240   *         241   *         242   *         243   *         
     *              *               *               *               *   
     ****************************************************************
     *              *               *               *               *   
  29 *   27  x 28   *    27  x 28   *    27  x 28   *    27  x 28   *   
     *        234   *         235   *         236   *         237   *         
     *              *               *               *               *   
     ****************************************************************
     *              *               *               *               *   
  28 *   27  x 28   *    27  x 28   *    27  x 28   *    27  x 28   *   
     *        228   *         229   *         230   *         231   *         
     *              *               *               *               *   
     ****************************************************************
     *              *               *               *               *   
  27 *   27  x 28   *    27  x 28   *    27  x 28   *    27  x 28   *   
     *        223   *         224   *         225   *         226   *         
     *              *               *               *               *   
     ****************************************************************
     *              *               *               *               *   
  26 *   27  x 28   *    27  x 28   *    27  x 28   *    27  x 28   *   
     *         -1   *         217   *         218   *         219   *         
     *              *               *               *               *   
     ****************************************************************
     *              *               *               *               *   
  25 *   27  x 28   *    27  x 28   *    27  x 28   *    27  x 28   *   
     *        208   *         209   *         210   *         211   *         
     *              *               *               *               *   
     ****************************************************************
     *              *               *               *               *   
  24 *   27  x 28   *    27  x 28   *    27  x 28   *    27  x 28   *   
     *        199   *         200   *         201   *         202   *         
     *              *               *               *               *   
     ****************************************************************
     *              *               *               *               *   
  23 *   27  x 28   *    27  x 28   *    27  x 28   *    27  x 28   *   
     *        191   *         192   *         193   *         194   *         
     *              *               *               *               *   
     ****************************************************************
     *              *               *               *               *   
  22 *   27  x 28   *    27  x 28   *    27  x 28   *    27  x 28   *   
     *         -1   *         185   *         186   *         187   *         
     *              *               *               *               *   
     ****************************************************************
     *              *               *               *               *   
  21 *   27  x 28   *    27  x 28   *    27  x 28   *    27  x 28   *   
     *         -1   *          -1   *         178   *         179   *         
     *              *               *               *               *   
     ****************************************************************
     *              *               *               *               *   
  20 *   27  x 28   *    27  x 28   *    27  x 28   *    27  x 28   *   
     *         -1   *          -1   *          -1   *         169   *         
     *              *               *               *               *   
     ****************************************************************
     *              *               *               *               *   
  19 *   27  x 28   *    27  x 28   *    27  x 28   *    27  x 28   *   
     *         -1   *          -1   *          -1   *          -1   *         
     *              *               *               *               *   
     ****************************************************************
     *              *               *               *               *   
  18 *   27  x 28   *    27  x 28   *    27  x 28   *    27  x 28   *   
     *         -1   *          -1   *          -1   *          -1   *         
     *              *               *               *               *   
     ****************************************************************
     *              *               *               *               *   
  17 *   27  x 28   *    27  x 28   *    27  x 28   *    27  x 28   *   
     *         -1   *          -1   *          -1   *          -1   *         
     *              *               *               *               *   
     ****************************************************************
     *              *               *               *               *   
  16 *   27  x 28   *    27  x 28   *    27  x 28   *    27  x 28   *   
     *         -1   *          -1   *          -1   *          -1   *         
     *              *               *               *               *   
     ****************************************************************
     *              *               *               *               *   
  15 *   27  x 28   *    27  x 28   *    27  x 28   *    27  x 28   *   
     *         -1   *          -1   *          -1   *         125   *         
     *              *               *               *               *   
     ****************************************************************
     *              *               *               *               *   
  14 *   27  x 28   *    27  x 28   *    27  x 28   *    27  x 28   *   
     *         -1   *          -1   *          -1   *         114   *         
     *              *               *               *               *   
     ****************************************************************
     *              *               *               *               *   
  13 *   27  x 28   *    27  x 28   *    27  x 28   *    27  x 28   *   
     *        102   *          -1   *          -1   *         103   *         
     *              *               *               *               *   
     ****************************************************************
     *              *               *               *               *   
  12 *   27  x 29   *    27  x 29   *    27  x 29   *    27  x 29   *   
     *         88   *          89   *          90   *          91   *         
     *              *               *               *               *   
     ****************************************************************
     *              *               *               *               *   
  11 *   27  x 29   *    27  x 29   *    27  x 29   *    27  x 29   *   
     *         75   *          76   *          77   *          78   *         
     *              *               *               *               *   
     ****************************************************************
     *              *               *               *               *   
  10 *   27  x 29   *    27  x 29   *    27  x 29   *    27  x 29   *   
     *         62   *          63   *          64   *          65   *         
     *              *               *               *               *   
     ****************************************************************
     *              *               *               *               *   
   9 *   27  x 29   *    27  x 29   *    27  x 29   *    27  x 29   *   
     *         -1   *          -1   *          54   *          55   *         
     *              *               *               *               *   
     ****************************************************************
     *              *               *               *               *   
   8 *   27  x 29   *    27  x 29   *    27  x 29   *    27  x 29   *   
     *         -1   *          -1   *          -1   *          47   *         
     *              *               *               *               *   
     ****************************************************************
     *              *               *               *               *   
   7 *   27  x 29   *    27  x 29   *    27  x 29   *    27  x 29   *   
     *         -1   *          -1   *          -1   *          -1   *         
     *              *               *               *               *   
     ****************************************************************
     *              *               *               *               *   
   6 *   27  x 29   *    27  x 29   *    27  x 29   *    27  x 29   *   
     *         -1   *          -1   *          -1   *          36   *         
     *              *               *               *               *   
     ****************************************************************
     *              *               *               *               *   
   5 *   27  x 29   *    27  x 29   *    27  x 29   *    27  x 29   *   
     *         -1   *          28   *          29   *          30   *         
     *              *               *               *               *   
     ****************************************************************
     *              *               *               *               *   
   4 *   27  x 29   *    27  x 29   *    27  x 29   *    27  x 29   *   
     *         21   *          22   *          23   *          24   *         
     *              *               *               *               *   
     ****************************************************************
     *              *               *               *               *   
   3 *   27  x 29   *    27  x 29   *    27  x 29   *    27  x 29   *   
     *         14   *          15   *          16   *          17   *         
     *              *               *               *               *   
     ****************************************************************
     *              *               *               *               *   
   2 *   27  x 29   *    27  x 29   *    27  x 29   *    27  x 29   *   
     *          7   *           8   *           9   *          10   *         
     *              *               *               *               *   
     ****************************************************************
     *              *               *               *               *   
   1 *   27  x 29   *    27  x 29   *    27  x 29   *    27  x 29   *   
     *          1   *           2   *           3   *           4   *         
     *              *               *               *               *   
     ****************************************************************
             5               6               7               8             

     ****************************************************************
     *              *               *               *               *   
  34 *   27  x 28   *    27  x 28   *    27  x 28   *    27  x 28   *   
     *         -1   *          -1   *         276   *         277   *         
     *              *               *               *               *   
     ****************************************************************
     *              *               *               *               *   
  33 *   27  x 28   *    27  x 28   *    27  x 28   *    27  x 28   *   
     *         -1   *         267   *         268   *          -1   *         
     *              *               *               *               *   
     ****************************************************************
     *              *               *               *               *   
  32 *   27  x 28   *    27  x 28   *    27  x 28   *    27  x 28   *   
     *        259   *         260   *         261   *          -1   *         
     *              *               *               *               *   
     ****************************************************************
     *              *               *               *               *   
  31 *   27  x 28   *    27  x 28   *    27  x 28   *    27  x 28   *   
     *        253   *          -1   *          -1   *          -1   *         
     *              *               *               *               *   
     ****************************************************************
     *              *               *               *               *   
  30 *   27  x 28   *    27  x 28   *    27  x 28   *    27  x 28   *   
     *        244   *         245   *         246   *         247   *         
     *              *               *               *               *   
     ****************************************************************
     *              *               *               *               *   
  29 *   27  x 28   *    27  x 28   *    27  x 28   *    27  x 28   *   
     *        238   *         239   *          -1   *          -1   *         
     *              *               *               *               *   
     ****************************************************************
     *              *               *               *               *   
  28 *   27  x 28   *    27  x 28   *    27  x 28   *    27  x 28   *   
     *        232   *         233   *          -1   *          -1   *         
     *              *               *               *               *   
     ****************************************************************
     *              *               *               *               *   
  27 *   27  x 28   *    27  x 28   *    27  x 28   *    27  x 28   *   
     *         -1   *          -1   *          -1   *          -1   *         
     *              *               *               *               *   
     ****************************************************************
     *              *               *               *               *   
  26 *   27  x 28   *    27  x 28   *    27  x 28   *    27  x 28   *   
     *        220   *          -1   *          -1   *          -1   *         
     *              *               *               *               *   
     ****************************************************************
     *              *               *               *               *   
  25 *   27  x 28   *    27  x 28   *    27  x 28   *    27  x 28   *   
     *        212   *          -1   *          -1   *         213   *         
     *              *               *               *               *   
     ****************************************************************
     *              *               *               *               *   
  24 *   27  x 28   *    27  x 28   *    27  x 28   *    27  x 28   *   
     *        203   *         204   *         205   *         206   *         
     *              *               *               *               *   
     ****************************************************************
     *              *               *               *               *   
  23 *   27  x 28   *    27  x 28   *    27  x 28   *    27  x 28   *   
     *        195   *         196   *         197   *         198   *         
     *              *               *               *               *   
     ****************************************************************
     *              *               *               *               *   
  22 *   27  x 28   *    27  x 28   *    27  x 28   *    27  x 28   *   
     *        188   *         189   *         190   *          -1   *         
     *              *               *               *               *   
     ****************************************************************
     *              *               *               *               *   
  21 *   27  x 28   *    27  x 28   *    27  x 28   *    27  x 28   *   
     *        180   *         181   *         182   *          -1   *         
     *              *               *               *               *   
     ****************************************************************
     *              *               *               *               *   
  20 *   27  x 28   *    27  x 28   *    27  x 28   *    27  x 28   *   
     *        170   *         171   *         172   *         173   *         
     *              *               *               *               *   
     ****************************************************************
     *              *               *               *               *   
  19 *   27  x 28   *    27  x 28   *    27  x 28   *    27  x 28   *   
     *        161   *         162   *         163   *         164   *         
     *              *               *               *               *   
     ****************************************************************
     *              *               *               *               *   
  18 *   27  x 28   *    27  x 28   *    27  x 28   *    27  x 28   *   
     *        154   *         155   *         156   *         157   *         
     *              *               *               *               *   
     ****************************************************************
     *              *               *               *               *   
  17 *   27  x 28   *    27  x 28   *    27  x 28   *    27  x 28   *   
     *        145   *         146   *         147   *         148   *         
     *              *               *               *               *   
     ****************************************************************
     *              *               *               *               *   
  16 *   27  x 28   *    27  x 28   *    27  x 28   *    27  x 28   *   
     *        136   *         137   *         138   *         139   *         
     *              *               *               *               *   
     ****************************************************************
     *              *               *               *               *   
  15 *   27  x 28   *    27  x 28   *    27  x 28   *    27  x 28   *   
     *        126   *         127   *         128   *         129   *         
     *              *               *               *               *   
     ****************************************************************
     *              *               *               *               *   
  14 *   27  x 28   *    27  x 28   *    27  x 28   *    27  x 28   *   
     *        115   *         116   *         117   *         118   *         
     *              *               *               *               *   
     ****************************************************************
     *              *               *               *               *   
  13 *   27  x 28   *    27  x 28   *    27  x 28   *    27  x 28   *   
     *        104   *         105   *         106   *         107   *         
     *              *               *               *               *   
     ****************************************************************
     *              *               *               *               *   
  12 *   27  x 29   *    27  x 29   *    27  x 29   *    27  x 29   *   
     *         92   *          93   *          94   *          95   *         
     *              *               *               *               *   
     ****************************************************************
     *              *               *               *               *   
  11 *   27  x 29   *    27  x 29   *    27  x 29   *    27  x 29   *   
     *         79   *          80   *          81   *          82   *         
     *              *               *               *               *   
     ****************************************************************
     *              *               *               *               *   
  10 *   27  x 29   *    27  x 29   *    27  x 29   *    27  x 29   *   
     *         66   *          67   *          68   *          69   *         
     *              *               *               *               *   
     ****************************************************************
     *              *               *               *               *   
   9 *   27  x 29   *    27  x 29   *    27  x 29   *    27  x 29   *   
     *         56   *          57   *          58   *          59   *         
     *              *               *               *               *   
     ****************************************************************
     *              *               *               *               *   
   8 *   27  x 29   *    27  x 29   *    27  x 29   *    27  x 29   *   
     *         48   *          49   *          50   *          51   *         
     *              *               *               *               *   
     ****************************************************************
     *              *               *               *               *   
   7 *   27  x 29   *    27  x 29   *    27  x 29   *    27  x 29   *   
     *         42   *          43   *          44   *          45   *         
     *              *               *               *               *   
     ****************************************************************
     *              *               *               *               *   
   6 *   27  x 29   *    27  x 29   *    27  x 29   *    27  x 29   *   
     *         37   *          38   *          39   *          40   *         
     *              *               *               *               *   
     ****************************************************************
     *              *               *               *               *   
   5 *   27  x 29   *    27  x 29   *    27  x 29   *    27  x 29   *   
     *         31   *          32   *          33   *          34   *         
     *              *               *               *               *   
     ****************************************************************
     *              *               *               *               *   
   4 *   27  x 29   *    27  x 29   *    27  x 29   *    27  x 29   *   
     *         25   *          26   *          27   *          -1   *         
     *              *               *               *               *   
     ****************************************************************
     *              *               *               *               *   
   3 *   27  x 29   *    27  x 29   *    27  x 29   *    27  x 29   *   
     *         18   *          19   *          -1   *          -1   *         
     *              *               *               *               *   
     ****************************************************************
     *              *               *               *               *   
   2 *   27  x 29   *    27  x 29   *    27  x 29   *    27  x 29   *   
     *         11   *          12   *          -1   *          -1   *         
     *              *               *               *               *   
     ****************************************************************
     *              *               *               *               *   
   1 *   27  x 29   *    27  x 29   *    27  x 29   *    27  x 29   *   
     *          5   *          -1   *          -1   *          -1   *         
     *              *               *               *               *   
     ****************************************************************
             9              10              11              12             

     ****************************************************************
     *              *               *               *               *   
  34 *   26  x 28   *    26  x 28   *    26  x 28   *    26  x 28   *   
     *         -1   *          -1   *          -1   *          -1   *         
     *              *               *               *               *   
     ****************************************************************
     *              *               *               *               *   
  33 *   26  x 28   *    26  x 28   *    26  x 28   *    26  x 28   *   
     *         -1   *          -1   *          -1   *          -1   *         
     *              *               *               *               *   
     ****************************************************************
     *              *               *               *               *   
  32 *   26  x 28   *    26  x 28   *    26  x 28   *    26  x 28   *   
     *         -1   *          -1   *          -1   *          -1   *         
     *              *               *               *               *   
     ****************************************************************
     *              *               *               *               *   
  31 *   26  x 28   *    26  x 28   *    26  x 28   *    26  x 28   *   
     *         -1   *          -1   *          -1   *          -1   *         
     *              *               *               *               *   
     ****************************************************************
     *              *               *               *               *   
  30 *   26  x 28   *    26  x 28   *    26  x 28   *    26  x 28   *   
     *        248   *          -1   *          -1   *          -1   *         
     *              *               *               *               *   
     ****************************************************************
     *              *               *               *               *   
  29 *   26  x 28   *    26  x 28   *    26  x 28   *    26  x 28   *   
     *         -1   *          -1   *          -1   *          -1   *         
     *              *               *               *               *   
     ****************************************************************
     *              *               *               *               *   
  28 *   26  x 28   *    26  x 28   *    26  x 28   *    26  x 28   *   
     *         -1   *          -1   *          -1   *          -1   *         
     *              *               *               *               *   
     ****************************************************************
     *              *               *               *               *   
  27 *   26  x 28   *    26  x 28   *    26  x 28   *    26  x 28   *   
     *         -1   *         227   *          -1   *          -1   *         
     *              *               *               *               *   
     ****************************************************************
     *              *               *               *               *   
  26 *   26  x 28   *    26  x 28   *    26  x 28   *    26  x 28   *   
     *         -1   *         221   *         222   *          -1   *         
     *              *               *               *               *   
     ****************************************************************
     *              *               *               *               *   
  25 *   26  x 28   *    26  x 28   *    26  x 28   *    26  x 28   *   
     *        214   *         215   *         216   *          -1   *         
     *              *               *               *               *   
     ****************************************************************
     *              *               *               *               *   
  24 *   26  x 28   *    26  x 28   *    26  x 28   *    26  x 28   *   
     *        207   *          -1   *          -1   *          -1   *         
     *              *               *               *               *   
     ****************************************************************
     *              *               *               *               *   
  23 *   26  x 28   *    26  x 28   *    26  x 28   *    26  x 28   *   
     *         -1   *          -1   *          -1   *          -1   *         
     *              *               *               *               *   
     ****************************************************************
     *              *               *               *               *   
  22 *   26  x 28   *    26  x 28   *    26  x 28   *    26  x 28   *   
     *         -1   *          -1   *          -1   *          -1   *         
     *              *               *               *               *   
     ****************************************************************
     *              *               *               *               *   
  21 *   26  x 28   *    26  x 28   *    26  x 28   *    26  x 28   *   
     *         -1   *          -1   *         183   *         184   *         
     *              *               *               *               *   
     ****************************************************************
     *              *               *               *               *   
  20 *   26  x 28   *    26  x 28   *    26  x 28   *    26  x 28   *   
     *        174   *         175   *         176   *         177   *         
     *              *               *               *               *   
     ****************************************************************
     *              *               *               *               *   
  19 *   26  x 28   *    26  x 28   *    26  x 28   *    26  x 28   *   
     *        165   *         166   *         167   *         168   *         
     *              *               *               *               *   
     ****************************************************************
     *              *               *               *               *   
  18 *   26  x 28   *    26  x 28   *    26  x 28   *    26  x 28   *   
     *        158   *         159   *          -1   *         160   *         
     *              *               *               *               *   
     ****************************************************************
     *              *               *               *               *   
  17 *   26  x 28   *    26  x 28   *    26  x 28   *    26  x 28   *   
     *        149   *         150   *         151   *         152   *         
     *              *               *               *               *   
     ****************************************************************
     *              *               *               *               *   
  16 *   26  x 28   *    26  x 28   *    26  x 28   *    26  x 28   *   
     *        140   *         141   *         142   *         143   *         
     *              *               *               *               *   
     ****************************************************************
     *              *               *               *               *   
  15 *   26  x 28   *    26  x 28   *    26  x 28   *    26  x 28   *   
     *        130   *         131   *         132   *          -1   *         
     *              *               *               *               *   
     ****************************************************************
     *              *               *               *               *   
  14 *   26  x 28   *    26  x 28   *    26  x 28   *    26  x 28   *   
     *        119   *         120   *         121   *          -1   *         
     *              *               *               *               *   
     ****************************************************************
     *              *               *               *               *   
  13 *   26  x 28   *    26  x 28   *    26  x 28   *    26  x 28   *   
     *        108   *         109   *          -1   *          -1   *         
     *              *               *               *               *   
     ****************************************************************
     *              *               *               *               *   
  12 *   26  x 29   *    26  x 29   *    26  x 29   *    26  x 29   *   
     *         96   *          97   *          98   *          -1   *         
     *              *               *               *               *   
     ****************************************************************
     *              *               *               *               *   
  11 *   26  x 29   *    26  x 29   *    26  x 29   *    26  x 29   *   
     *         83   *          84   *          85   *          -1   *         
     *              *               *               *               *   
     ****************************************************************
     *              *               *               *               *   
  10 *   26  x 29   *    26  x 29   *    26  x 29   *    26  x 29   *   
     *         70   *          71   *          72   *          -1   *         
     *              *               *               *               *   
     ****************************************************************
     *              *               *               *               *   
   9 *   26  x 29   *    26  x 29   *    26  x 29   *    26  x 29   *   
     *         60   *          61   *          -1   *          -1   *         
     *              *               *               *               *   
     ****************************************************************
     *              *               *               *               *   
   8 *   26  x 29   *    26  x 29   *    26  x 29   *    26  x 29   *   
     *         52   *          53   *          -1   *          -1   *         
     *              *               *               *               *   
     ****************************************************************
     *              *               *               *               *   
   7 *   26  x 29   *    26  x 29   *    26  x 29   *    26  x 29   *   
     *         46   *          -1   *          -1   *          -1   *         
     *              *               *               *               *   
     ****************************************************************
     *              *               *               *               *   
   6 *   26  x 29   *    26  x 29   *    26  x 29   *    26  x 29   *   
     *         41   *          -1   *          -1   *          -1   *         
     *              *               *               *               *   
     ****************************************************************
     *              *               *               *               *   
   5 *   26  x 29   *    26  x 29   *    26  x 29   *    26  x 29   *   
     *         35   *          -1   *          -1   *          -1   *         
     *              *               *               *               *   
     ****************************************************************
     *              *               *               *               *   
   4 *   26  x 29   *    26  x 29   *    26  x 29   *    26  x 29   *   
     *         -1   *          -1   *          -1   *          -1   *         
     *              *               *               *               *   
     ****************************************************************
     *              *               *               *               *   
   3 *   26  x 29   *    26  x 29   *    26  x 29   *    26  x 29   *   
     *         -1   *          -1   *          -1   *          -1   *         
     *              *               *               *               *   
     ****************************************************************
     *              *               *               *               *   
   2 *   26  x 29   *    26  x 29   *    26  x 29   *    26  x 29   *   
     *         -1   *          -1   *          -1   *          -1   *         
     *              *               *               *               *   
     ****************************************************************
     *              *               *               *               *   
   1 *   26  x 29   *    26  x 29   *    26  x 29   *    26  x 29   *   
     *         -1   *          -1   *          -1   *          -1   *         
     *              *               *               *               *   
     ****************************************************************
            13              14              15              16             
  nproc  =            0
  nowe   =           -1  noea   =             1
  nono   =            6  noso   =           -13
  nbondi =           -1
  nbondj =           -1
  npolj  =            0
  nperio =            0
  nlci   =           27
  nlcj   =           29
  nimpp  =           76
  njmpp  =            1
  nreci  =            2  npse   =          -12
  nrecj  =            2  npsw   =          -14
  jpreci =            1  npne   =            7
  jprecj =            1  npnw   =           -1


 mpp_init_ioipsl :   iloc  =           27          29
 ~~~~~~~~~~~~~~~     iabsf =           76           1
                     ihals =            1           0
                     ihale =            1           1

  phy_cst : initialization of ocean parameters and constants
  ~~~~~~~
        Domain info
           dimension of model
                  Local domain      Global domain       Data domain 
               jpi     :      27   jpiglo  :     398   jpidta  :     398
               jpj     :      29   jpjglo  :     898   jpjdta  :     898
               jpk     :      40   jpk     :      40   jpkdta  :      40
               jpij    :          783
           mpp local domain info (mpp)
              jpni    :           16    jpreci  :            1
              jpnj    :           34    jprecj  :            1
              jpnij   :          278
           lateral domain boundary condition type : jperio  =            0

        Constants

           mathematical constant                 rpi =    3.1415926535897931     

           day                                rday   =    86400.000000000000       s
           sideral year                       rsiyea =    31558149.010110732       s
           sideral day                        rsiday =    86164.099655911836       s
           omega                              omega  =   7.29211508304606178E-005  s^-1

           nb of months per year               raamo =    12.000000000000000       months
           nb of hours per day                 rjjhh =    24.000000000000000       hours
           nb of minutes per hour              rhhmm =    60.000000000000000       mn
           nb of seconds per minute            rmmss =    60.000000000000000       s

           earth radius                         ra   =    6371229.0000000000       m
           gravity                              grav =    9.8066499999999994       m/s^2

           triple point of temperature      rtt      =    273.16000000000003       K
           freezing point of water          rt0      =    273.14999999999998       K
           melting point of snow            rt0_snow =    273.14999999999998       K
           melting point of ice             rt0_ice  =    273.05000000000001       K
           reference density and heat capacity now defined in eosbn2.f90

           thermal conductivity of the snow          =   0.22000000000000000       J/s/m/K
           thermal conductivity of the ice           =    2.0343960000000001       J/s/m/K
           fresh ice specific heat                   =    2093.0000000000000       J/kg/K
           latent heat of fusion of fresh ice / snow =    333700.00000000000       J/kg
           density times specific heat for snow      =    690690.00000000000       J/m^3/K
           density times specific heat for ice       =    1883700.0000000000       J/m^3/K
           volumetric latent heat fusion of sea ice  =    300330000.00000000       J/m
           latent heat of sublimation of snow        =    2800000.0000000000       J/kg
           volumetric latent heat fusion of snow     =    110121000.00000000       J/m^3
           density of sea ice                        =    900.00000000000000       kg/m^3
           density of snow                           =    330.00000000000000       kg/m^3
           emissivity of snow or ice                 =   0.96999999999999997     
           salinity of ice                           =    6.0000000000000000       psu
           salinity of sea                           =    34.700000000000003       psu
           latent heat of evaporation (water)        =    2500000.0000000000       J/m^3
           correction factor for solar radiation     =   0.90000000000000002     
           von Karman constant                       =   0.40000000000000002     
           Stefan-Boltzmann constant                 =   5.66999999999999982E-008  J/s/m^2/K^4

           conversion: degre ==> radian          rad =   1.74532925199432955E-002

           smallest real computer value       rsmall =   1.11022302462515654E-016

 eos_init : equation of state
 ~~~~~~~~
           Namelist nameos : set eos parameters
              flag for eq. of state and N^2  nn_eos   =           -1
              model uses Conservative Temperature
              Important: model must be initialized with CT and SA fields

           use of TEOS-10 equation of state (cons. temp. and abs. salinity)

           volumic mass of reference           rau0  =    1026.0000000000000       kg/m^3
           1. / rau0                        r1_rau0  =   9.74658869395711447E-004  m^3/kg
           ocean specific heat                 rcp   =    3991.8679571196299       J/Kelvin
           rau0 * rcp                       rau0_rcp =    4095656.5240047402     
           1. / ( rau0 * rcp )           r1_rau0_rcp =   2.44161099481603558E-007

 dom_cfg : set the ocean configuration
 ~~~~~~~ 
    ocean model configuration used :   cp_cfg = SalishSea                                                                                                                                                                                                                                                        jp_cfg =          120
    global domain lateral boundaries
       jperio= 0, closed

 dom_glo : domain: data / local 
 ~~~~~~~ 
           data input domain    : jpidta =          398  jpjdta =          898  jpkdta =           40
           global or zoom domain: jpiglo =          398  jpjglo =          898  jpk    =           40
           local domain         : jpi    =           27  jpj    =           29  jpk    =           40

           south-west indices    jpizoom =            1  jpjzoom =            1

           conversion local  ==> data i-index domain
            76  77  78  79  80  81  82  83  84  85  86  87  88  89  90  91  92  93  94
            95  96  97  98  99 100 101 102

           conversion data   ==> local  i-index domain
              starting index
             1   1   1   1   1   1   1   1   1   1   1   1   1   1   1   1   1   1   1
             1   1   1   1   1   1   1   1   1   1   1   1   1   1   1   1   1   1   1
             1   1   1   1   1   1   1   1   1   1   1   1   1   1   1   1   1   1   1
             1   1   1   1   1   1   1   1   1   1   1   1   1   1   1   1   1   1   1
             2   3   4   5   6   7   8   9  10  11  12  13  14  15  16  17  18  19  20
            21  22  23  24  25  26  27  28  28  28  28  28  28  28  28  28  28  28  28
            28  28  28  28  28  28  28  28  28  28  28  28  28  28  28  28  28  28  28
            28  28  28  28  28  28  28  28  28  28  28  28  28  28  28  28  28  28  28
            28  28  28  28  28  28  28  28  28  28  28  28  28  28  28  28  28  28  28
            28  28  28  28  28  28  28  28  28  28  28  28  28  28  28  28  28  28  28
            28  28  28  28  28  28  28  28  28  28  28  28  28  28  28  28  28  28  28
            28  28  28  28  28  28  28  28  28  28  28  28  28  28  28  28  28  28  28
            28  28  28  28  28  28  28  28  28  28  28  28  28  28  28  28  28  28  28
            28  28  28  28  28  28  28  28  28  28  28  28  28  28  28  28  28  28  28
            28  28  28  28  28  28  28  28  28  28  28  28  28  28  28  28  28  28  28
            28  28  28  28  28  28  28  28  28  28  28  28  28  28  28  28  28  28  28
            28  28  28  28  28  28  28  28  28  28  28  28  28  28  28  28  28  28  28
            28  28  28  28  28  28  28  28  28  28  28  28  28  28  28  28  28  28  28
            28  28  28  28  28  28  28  28  28  28  28  28  28  28  28  28  28  28  28
            28  28  28  28  28  28  28  28  28  28  28  28  28  28  28  28  28  28  28
            28  28  28  28  28  28  28  28  28  28  28  28  28  28  28  28  28  28
              ending index
             0   0   0   0   0   0   0   0   0   0   0   0   0   0   0   0   0   0   0
             0   0   0   0   0   0   0   0   0   0   0   0   0   0   0   0   0   0   0
             0   0   0   0   0   0   0   0   0   0   0   0   0   0   0   0   0   0   0
             0   0   0   0   0   0   0   0   0   0   0   0   0   0   0   0   0   0   1
             2   3   4   5   6   7   8   9  10  11  12  13  14  15  16  17  18  19  20
            21  22  23  24  25  26  27  27  27  27  27  27  27  27  27  27  27  27  27
            27  27  27  27  27  27  27  27  27  27  27  27  27  27  27  27  27  27  27
            27  27  27  27  27  27  27  27  27  27  27  27  27  27  27  27  27  27  27
            27  27  27  27  27  27  27  27  27  27  27  27  27  27  27  27  27  27  27
            27  27  27  27  27  27  27  27  27  27  27  27  27  27  27  27  27  27  27
            27  27  27  27  27  27  27  27  27  27  27  27  27  27  27  27  27  27  27
            27  27  27  27  27  27  27  27  27  27  27  27  27  27  27  27  27  27  27
            27  27  27  27  27  27  27  27  27  27  27  27  27  27  27  27  27  27  27
            27  27  27  27  27  27  27  27  27  27  27  27  27  27  27  27  27  27  27
            27  27  27  27  27  27  27  27  27  27  27  27  27  27  27  27  27  27  27
            27  27  27  27  27  27  27  27  27  27  27  27  27  27  27  27  27  27  27
            27  27  27  27  27  27  27  27  27  27  27  27  27  27  27  27  27  27  27
            27  27  27  27  27  27  27  27  27  27  27  27  27  27  27  27  27  27  27
            27  27  27  27  27  27  27  27  27  27  27  27  27  27  27  27  27  27  27
            27  27  27  27  27  27  27  27  27  27  27  27  27  27  27  27  27  27  27
            27  27  27  27  27  27  27  27  27  27  27  27  27  27  27  27  27  27

           conversion local  ==> data j-index domain
             1   2   3   4   5   6   7   8   9  10  11  12  13  14  15  16  17  18  19
            20  21  22  23  24  25  26  27  28  29

           conversion data  ==> local j-index domain
              starting index
             1   2   3   4   5   6   7   8   9  10  11  12  13  14  15  16  17  18  19
            20  21  22  23  24  25  26  27  28  29  30  30  30  30  30  30  30  30  30
            30  30  30  30  30  30  30  30  30  30  30  30  30  30  30  30  30  30  30
            30  30  30  30  30  30  30  30  30  30  30  30  30  30  30  30  30  30  30
            30  30  30  30  30  30  30  30  30  30  30  30  30  30  30  30  30  30  30
            30  30  30  30  30  30  30  30  30  30  30  30  30  30  30  30  30  30  30
            30  30  30  30  30  30  30  30  30  30  30  30  30  30  30  30  30  30  30
            30  30  30  30  30  30  30  30  30  30  30  30  30  30  30  30  30  30  30
            30  30  30  30  30  30  30  30  30  30  30  30  30  30  30  30  30  30  30
            30  30  30  30  30  30  30  30  30  30  30  30  30  30  30  30  30  30  30
            30  30  30  30  30  30  30  30  30  30  30  30  30  30  30  30  30  30  30
            30  30  30  30  30  30  30  30  30  30  30  30  30  30  30  30  30  30  30
            30  30  30  30  30  30  30  30  30  30  30  30  30  30  30  30  30  30  30
            30  30  30  30  30  30  30  30  30  30  30  30  30  30  30  30  30  30  30
            30  30  30  30  30  30  30  30  30  30  30  30  30  30  30  30  30  30  30
            30  30  30  30  30  30  30  30  30  30  30  30  30  30  30  30  30  30  30
            30  30  30  30  30  30  30  30  30  30  30  30  30  30  30  30  30  30  30
            30  30  30  30  30  30  30  30  30  30  30  30  30  30  30  30  30  30  30
            30  30  30  30  30  30  30  30  30  30  30  30  30  30  30  30  30  30  30
            30  30  30  30  30  30  30  30  30  30  30  30  30  30  30  30  30  30  30
            30  30  30  30  30  30  30  30  30  30  30  30  30  30  30  30  30  30  30
            30  30  30  30  30  30  30  30  30  30  30  30  30  30  30  30  30  30  30
            30  30  30  30  30  30  30  30  30  30  30  30  30  30  30  30  30  30  30
            30  30  30  30  30  30  30  30  30  30  30  30  30  30  30  30  30  30  30
            30  30  30  30  30  30  30  30  30  30  30  30  30  30  30  30  30  30  30
            30  30  30  30  30  30  30  30  30  30  30  30  30  30  30  30  30  30  30
            30  30  30  30  30  30  30  30  30  30  30  30  30  30  30  30  30  30  30
            30  30  30  30  30  30  30  30  30  30  30  30  30  30  30  30  30  30  30
            30  30  30  30  30  30  30  30  30  30  30  30  30  30  30  30  30  30  30
            30  30  30  30  30  30  30  30  30  30  30  30  30  30  30  30  30  30  30
            30  30  30  30  30  30  30  30  30  30  30  30  30  30  30  30  30  30  30
            30  30  30  30  30  30  30  30  30  30  30  30  30  30  30  30  30  30  30
            30  30  30  30  30  30  30  30  30  30  30  30  30  30  30  30  30  30  30
            30  30  30  30  30  30  30  30  30  30  30  30  30  30  30  30  30  30  30
            30  30  30  30  30  30  30  30  30  30  30  30  30  30  30  30  30  30  30
            30  30  30  30  30  30  30  30  30  30  30  30  30  30  30  30  30  30  30
            30  30  30  30  30  30  30  30  30  30  30  30  30  30  30  30  30  30  30
            30  30  30  30  30  30  30  30  30  30  30  30  30  30  30  30  30  30  30
            30  30  30  30  30  30  30  30  30  30  30  30  30  30  30  30  30  30  30
            30  30  30  30  30  30  30  30  30  30  30  30  30  30  30  30  30  30  30
            30  30  30  30  30  30  30  30  30  30  30  30  30  30  30  30  30  30  30
            30  30  30  30  30  30  30  30  30  30  30  30  30  30  30  30  30  30  30
            30  30  30  30  30  30  30  30  30  30  30  30  30  30  30  30  30  30  30
            30  30  30  30  30  30  30  30  30  30  30  30  30  30  30  30  30  30  30
            30  30  30  30  30  30  30  30  30  30  30  30  30  30  30  30  30  30  30
            30  30  30  30  30  30  30  30  30  30  30  30  30  30  30  30  30  30  30
            30  30  30  30  30  30  30  30  30  30  30  30  30  30  30  30  30  30  30
            30  30  30  30  30
              ending index
             1   2   3   4   5   6   7   8   9  10  11  12  13  14  15  16  17  18  19
            20  21  22  23  24  25  26  27  28  29  29  29  29  29  29  29  29  29  29
            29  29  29  29  29  29  29  29  29  29  29  29  29  29  29  29  29  29  29
            29  29  29  29  29  29  29  29  29  29  29  29  29  29  29  29  29  29  29
            29  29  29  29  29  29  29  29  29  29  29  29  29  29  29  29  29  29  29
            29  29  29  29  29  29  29  29  29  29  29  29  29  29  29  29  29  29  29
            29  29  29  29  29  29  29  29  29  29  29  29  29  29  29  29  29  29  29
            29  29  29  29  29  29  29  29  29  29  29  29  29  29  29  29  29  29  29
            29  29  29  29  29  29  29  29  29  29  29  29  29  29  29  29  29  29  29
            29  29  29  29  29  29  29  29  29  29  29  29  29  29  29  29  29  29  29
            29  29  29  29  29  29  29  29  29  29  29  29  29  29  29  29  29  29  29
            29  29  29  29  29  29  29  29  29  29  29  29  29  29  29  29  29  29  29
            29  29  29  29  29  29  29  29  29  29  29  29  29  29  29  29  29  29  29
            29  29  29  29  29  29  29  29  29  29  29  29  29  29  29  29  29  29  29
            29  29  29  29  29  29  29  29  29  29  29  29  29  29  29  29  29  29  29
            29  29  29  29  29  29  29  29  29  29  29  29  29  29  29  29  29  29  29
            29  29  29  29  29  29  29  29  29  29  29  29  29  29  29  29  29  29  29
            29  29  29  29  29  29  29  29  29  29  29  29  29  29  29  29  29  29  29
            29  29  29  29  29  29  29  29  29  29  29  29  29  29  29  29  29  29  29
            29  29  29  29  29  29  29  29  29  29  29  29  29  29  29  29  29  29  29
            29  29  29  29  29  29  29  29  29  29  29  29  29  29  29  29  29  29  29
            29  29  29  29  29  29  29  29  29  29  29  29  29  29  29  29  29  29  29
            29  29  29  29  29  29  29  29  29  29  29  29  29  29  29  29  29  29  29
            29  29  29  29  29  29  29  29  29  29  29  29  29  29  29  29  29  29  29
            29  29  29  29  29  29  29  29  29  29  29  29  29  29  29  29  29  29  29
            29  29  29  29  29  29  29  29  29  29  29  29  29  29  29  29  29  29  29
            29  29  29  29  29  29  29  29  29  29  29  29  29  29  29  29  29  29  29
            29  29  29  29  29  29  29  29  29  29  29  29  29  29  29  29  29  29  29
            29  29  29  29  29  29  29  29  29  29  29  29  29  29  29  29  29  29  29
            29  29  29  29  29  29  29  29  29  29  29  29  29  29  29  29  29  29  29
            29  29  29  29  29  29  29  29  29  29  29  29  29  29  29  29  29  29  29
            29  29  29  29  29  29  29  29  29  29  29  29  29  29  29  29  29  29  29
            29  29  29  29  29  29  29  29  29  29  29  29  29  29  29  29  29  29  29
            29  29  29  29  29  29  29  29  29  29  29  29  29  29  29  29  29  29  29
            29  29  29  29  29  29  29  29  29  29  29  29  29  29  29  29  29  29  29
            29  29  29  29  29  29  29  29  29  29  29  29  29  29  29  29  29  29  29
            29  29  29  29  29  29  29  29  29  29  29  29  29  29  29  29  29  29  29
            29  29  29  29  29  29  29  29  29  29  29  29  29  29  29  29  29  29  29
            29  29  29  29  29  29  29  29  29  29  29  29  29  29  29  29  29  29  29
            29  29  29  29  29  29  29  29  29  29  29  29  29  29  29  29  29  29  29
            29  29  29  29  29  29  29  29  29  29  29  29  29  29  29  29  29  29  29
            29  29  29  29  29  29  29  29  29  29  29  29  29  29  29  29  29  29  29
            29  29  29  29  29  29  29  29  29  29  29  29  29  29  29  29  29  29  29
            29  29  29  29  29  29  29  29  29  29  29  29  29  29  29  29  29  29  29
            29  29  29  29  29  29  29  29  29  29  29  29  29  29  29  29  29  29  29
            29  29  29  29  29  29  29  29  29  29  29  29  29  29  29  29  29  29  29
            29  29  29  29  29  29  29  29  29  29  29  29  29  29  29  29  29  29  29
            29  29  29  29  29

           zoom flags : 
              lzoom   =  F  (T = zoom, F = global )
              lzoom_e =  F  (T = forced closed east  boundary)
              lzoom_w =  F  (T = forced closed west  boundary)
              lzoom_s =  F  (T = forced closed South boundary)
              lzoom_n =  F  (T = forced closed North boundary)

 dom_init : domain initialization
 ~~~~~~~~

 dom_nam  : domain initialization through namelist read
 ~~~~~~~ 
    Namelist namrun
       job number                      nn_no      =            0
       experiment name for output      cn_exp     = SalishSea                                                                                                                                                                                                                                                       
       file prefix restart input       cn_ocerst_in= restart                                                                                                                                                                                                                                                         
       restart input directory         cn_ocerst_indir= .                                                                                                                                                                                                                                                               
       file prefix restart output      cn_ocerst_out= restart                                                                                                                                                                                                                                                         
       restart output directory        cn_ocerst_outdir= .                                                                                                                                                                                                                                                               
       restart logical                 ln_rstart  =  T
       start with forward time step    nn_euler   =            1
       control of time step            nn_rstctl  =            1
       number of the first time step   nn_it000   =      4732561
       number of the last time step    nn_itend   =      4743360
       initial calendar date aammjj    nn_date0   =     20170101
       leap year calendar (0/1)        nn_leapy   =            1
       initial state output            nn_istate  =            0
       list of restart dump times      nn_stocklist   =     4743360           0           0           0           0           0           0           0           0           0
       frequency of output file        nn_write   =         5475
       multi file dimgout              ln_dimgnnn =  F
       mask land points                ln_mskland =  F
       additional CF standard metadata ln_cfmeta  =  T
       overwrite an existing file      ln_clobber =  T
       NetCDF chunksize (bytes)        nn_chunksz =            0
    The IOIPSL calendar is "gregorian", i.e. leap year

    Namelist namdom : space & time domain
       flag read/compute bathymetry      nn_bathy     =            1
       Depth (if =0 bathy=jpkm1)         rn_bathy     =    0.0000000000000000     
       min depth of the ocean    (>0) or    rn_hmin   =    3.0000000000000000     
       min number of ocean level (<0)       
       minimum thickness of partial      rn_e3zps_min =    2.0000000000000000       (m)
          step level                     rn_e3zps_rat =   0.50000000000000000     
       create mesh/mask file(s)          nn_msh       =            0
            = 0   no file created           
            = 1   mesh_mask                 
            = 2   mesh and mask             
            = 3   mesh_hgr, msh_zgr and mask
       ocean time step                       rn_rdt    =    40.000000000000000     
       asselin time filter parameter         rn_atfp   =   0.10000000000000001     
       acceleration of converge              nn_acc    =            0
         nn_acc=1: surface tracer rdt        rn_rdtmin =    300.00000000000000     
                   bottom  tracer rdt        rdtmax    =    300.00000000000000     
                   depth of transition       rn_rdth   =    300.00000000000000     
       suppression of closed seas (=0)       nn_closea =            0
       online coarsening of dynamical fields ln_crs    =  F
       type of horizontal mesh jphgr_msh           =            0
       longitude of first raw and column T-point ppglam0 =    0.0000000000000000     
       latitude  of first raw and column T-point ppgphi0 =   -35.000000000000000     
       zonal      grid-spacing (degrees) ppe1_deg        =    1.0000000000000000     
       meridional grid-spacing (degrees) ppe2_deg        =   0.50000000000000000     
       zonal      grid-spacing (degrees) ppe1_m          =    5000.0000000000000     
       meridional grid-spacing (degrees) ppe2_m          =    5000.0000000000000     
       ORCA r4, r2 and r05 coefficients  ppsur           =    999999.00000000000     
                                         ppa0            =    999999.00000000000     
                                         ppa1            =    999999.00000000000     
                                         ppkth           =    25.000000000000000     
                                         ppacr           =    3.0000000000000000     
       Minimum vertical spacing ppdzmin                  =    1.0000000000000000     
       Maximum depth pphmax                              =    428.00000000000000     
       Use double tanf function for vertical coordinates ldbletanh =  F
       Double tanh function parameters ppa2              =    100.76092850000001     
                                       ppkth2            =    48.029893719999997     
                                       ppacr2            =    13.000000000000000     

    Namelist namcla
       cross land advection                 nn_cla    =            0

    Namelist namnc4 - Netcdf4 chunking parameters
       number of chunks in i-dimension      nn_nchunks_i   =            1
       number of chunks in j-dimension      nn_nchunks_j   =            1
       number of chunks in k-dimension      nn_nchunks_k   =            1
       apply netcdf4/hdf5 chunking & compression ln_nc4zip =  T

 dom_clo : closed seas 
 ~~~~~~~

 dom_hgr : define the horizontal mesh from ithe following par_oce parameters 
 ~~~~~~~      type of horizontal mesh           jphgr_msh =            0
              position of the first row and     ppglam0  =    0.0000000000000000     
              column grid-point (degrees)       ppgphi0  =   -35.000000000000000     
              zonal      grid-spacing (degrees) ppe1_deg =    1.0000000000000000     
              meridional grid-spacing (degrees) ppe2_deg =   0.50000000000000000     
              zonal      grid-spacing (meters)  ppe1_m   =    5000.0000000000000     
              meridional grid-spacing (meters)  ppe2_m   =    5000.0000000000000     

           curvilinear coordinate on the sphere read in "coordinate" file

 hgr_read : read the horizontal coordinates
[...]
           iom_nf90_rp0123d, file: ./SalishSea_04743360_restart_0000.nc, var: ndastp written ok
           iom_nf90_rp0123d, file: ./SalishSea_04743360_restart_0000.nc, var: adatrj written ok
                     iom_close ~~~ close file: ./NEMO-atmos/ops_y2017m01d06.nc ok

 sbc_apr : ssh_ib written in ocean restart file at it=      4743360  date=     20170105
 ~~~~
           iom_nf90_rp0123d, file: ./SalishSea_04743360_restart_0000.nc, var: ssh_ibb write dimension variables done
           iom_nf90_rp0123d, file: ./SalishSea_04743360_restart_0000.nc, var: ssh_ibb written ok
                     iom_close ~~~ close file: ./ssh/ssh_y2017m01d06.nc ok
                     iom_close ~~~ close file: ./ssh/ssh_y2017m01d06.nc ok
                     iom_close ~~~ close file: ./ssh/ssh_y2017m01d06.nc ok
                     iom_close ~~~ close file: ./LiveOcean/LiveOcean_v201905_y2017m01d06.nc ok
                     iom_close ~~~ close file: ./LiveOcean/LiveOcean_v201905_y2017m01d06.nc ok
                     iom_close ~~~ close file: ./ssh/ssh_y2017m01d06.nc ok
                     iom_close ~~~ close file: ./ssh/ssh_y2017m01d06.nc ok
                     iom_close ~~~ close file: ./ssh/ssh_y2017m01d06.nc ok
                     iom_close ~~~ close file: ./tracers/north/Dosser_north_TEOS10.nc ok
                     iom_close ~~~ close file: ./tracers/north/Dosser_north_TEOS10.nc ok
                     iom_close ~~~ close file: ./NEMO-atmos/ops_y2017m01d06.nc ok
                     iom_close ~~~ close file: ./NEMO-atmos/ops_y2017m01d06.nc ok
                     iom_close ~~~ close file: ./NEMO-atmos/ops_y2017m01d06.nc ok
                     iom_close ~~~ close file: ./NEMO-atmos/ops_y2017m01d06.nc ok
                     iom_close ~~~ close file: ./NEMO-atmos/ops_y2017m01d06.nc ok
                     iom_close ~~~ close file: ./NEMO-atmos/ops_y2017m01d06.nc ok
                     iom_close ~~~ close file: ./NEMO-atmos/ops_y2017m01d06.nc ok
                     iom_close ~~~ close file: ./grid/no_snow.nc ok
                     iom_close ~~~ close file: ./rivers/R201702DFraCElse_y2017m01d06.nc ok
                     iom_close ~~~ close file: ./rivers-climatology/rivers_ConsTemp_month.nc ok

 sbcrnf : runoff forcing fields written in ocean restart file at it=      4743360  date=     20170105
 ~~~~
           iom_nf90_rp0123d, file: ./SalishSea_04743360_restart_0000.nc, var: rnf_b written ok
           iom_nf90_rp0123d, file: ./SalishSea_04743360_restart_0000.nc, var: rnf_hc_b written ok
           iom_nf90_rp0123d, file: ./SalishSea_04743360_restart_0000.nc, var: rnf_sc_b written ok

 sbc : ocean surface forcing fields written in ocean restart file at it=      4743360  date=     20170105
 ~~~~
           iom_nf90_rp0123d, file: ./SalishSea_04743360_restart_0000.nc, var: utau_b written ok
           iom_nf90_rp0123d, file: ./SalishSea_04743360_restart_0000.nc, var: vtau_b written ok
           iom_nf90_rp0123d, file: ./SalishSea_04743360_restart_0000.nc, var: qns_b written ok
           iom_nf90_rp0123d, file: ./SalishSea_04743360_restart_0000.nc, var: emp_b written ok
           iom_nf90_rp0123d, file: ./SalishSea_04743360_restart_0000.nc, var: sfx_b written ok
 ---- gls-rst ----
           iom_nf90_rp0123d, file: ./SalishSea_04743360_restart_0000.nc, var: en written ok
           iom_nf90_rp0123d, file: ./SalishSea_04743360_restart_0000.nc, var: avt written ok
           iom_nf90_rp0123d, file: ./SalishSea_04743360_restart_0000.nc, var: avm written ok
           iom_nf90_rp0123d, file: ./SalishSea_04743360_restart_0000.nc, var: avmu written ok
           iom_nf90_rp0123d, file: ./SalishSea_04743360_restart_0000.nc, var: avmv written ok
           iom_nf90_rp0123d, file: ./SalishSea_04743360_restart_0000.nc, var: mxln written ok
           iom_nf90_rp0123d, file: ./SalishSea_04743360_restart_0000.nc, var: ub2_b written ok
           iom_nf90_rp0123d, file: ./SalishSea_04743360_restart_0000.nc, var: vb2_b written ok

 trc_wri : write the TOP restart file (NetCDF) at it=      4743360  date=     20170105
 ~~~~~~~
           iom_nf90_rp0123d, file: ./SalishSea_04743360_restart_trc_0000.nc, var: kt written ok
           iom_nf90_rp0123d, file: ./SalishSea_04743360_restart_trc_0000.nc, var: ndastp written ok
           iom_nf90_rp0123d, file: ./SalishSea_04743360_restart_trc_0000.nc, var: adatrj written ok
   reading OBC data for    14 variable(s) at step    4743360
                     iom_close ~~~ close file: ./LiveOcean/LiveOcean_v201905_y2017m01d06.nc ok
                     iom_close ~~~ close file: ./tracers/west/bioOBC_West_const201812.nc ok
                     iom_close ~~~ close file: ./LiveOcean/LiveOcean_v201905_y2017m01d06.nc ok
                     iom_close ~~~ close file: ./tracers/west/bioOBC_West_const201812.nc ok
                     iom_close ~~~ close file: ./tracers/west/bioOBC_West_const201812.nc ok
                     iom_close ~~~ close file: ./tracers/west/bioOBC_West_const201812.nc ok
                     iom_close ~~~ close file: ./tracers/west/bioOBC_West_const201812.nc ok
                     iom_close ~~~ close file: ./tracers/west/bioOBC_West_const201812.nc ok
                     iom_close ~~~ close file: ./tracers/west/bioOBC_West_const201812.nc ok
                     iom_close ~~~ close file: ./tracers/west/bioOBC_West_const201812.nc ok
                     iom_close ~~~ close file: ./tracers/west/bioOBC_West_const201812.nc ok
                     iom_close ~~~ close file: ./LiveOcean/LiveOcean_v201905_y2017m01d06.nc ok
                     iom_close ~~~ close file: ./LiveOcean/LiveOcean_v201905_y2017m01d06.nc ok
                     iom_close ~~~ close file: ./LiveOcean/LiveOcean_v201905_y2017m01d06.nc ok
                     iom_close ~~~ close file: ./tracers/north/bioOBC_North_monthlySiNO3.nc ok
                     iom_close ~~~ close file: ./tracers/north/bioOBC_North_const201812.nc ok
                     iom_close ~~~ close file: ./tracers/north/bioOBC_North_monthlySiNO3.nc ok
                     iom_close ~~~ close file: ./tracers/north/bioOBC_North_const201812.nc ok
                     iom_close ~~~ close file: ./tracers/north/bioOBC_North_const201812.nc ok
                     iom_close ~~~ close file: ./tracers/north/bioOBC_North_const201812.nc ok
                     iom_close ~~~ close file: ./tracers/north/bioOBC_North_const201812.nc ok
                     iom_close ~~~ close file: ./tracers/north/bioOBC_North_const201812.nc ok
                     iom_close ~~~ close file: ./tracers/north/bioOBC_North_const201812.nc ok
                     iom_close ~~~ close file: ./tracers/north/bioOBC_North_const201812.nc ok
                     iom_close ~~~ close file: ./tracers/north/bioOBC_North_const201812.nc ok
                     iom_close ~~~ close file: ./tracers/north/Dosser_north_TEOS10_DICTA.nc ok
                     iom_close ~~~ close file: ./tracers/north/Dosser_north_TEOS10_DICTA.nc ok
                     iom_close ~~~ close file: ./tracers/north/tr_northDICTAOXY.nc ok
                     iom_close ~~~ close file: ./rivers-climatology/bio/R201906_bioClim_m01d06.nc ok
                     iom_close ~~~ close file: ./rivers-climatology/bio/R201906_bioConst.nc ok
                     iom_close ~~~ close file: ./rivers-climatology/bio/R201906_bioClim_m01d06.nc ok
                     iom_close ~~~ close file: ./rivers-climatology/bio/R201906_bioConst.nc ok
                     iom_close ~~~ close file: ./rivers-climatology/bio/R201906_bioConst.nc ok
                     iom_close ~~~ close file: ./rivers-climatology/bio/R201906_bioConst.nc ok
                     iom_close ~~~ close file: ./rivers-climatology/bio/R201906_bioConst.nc ok
                     iom_close ~~~ close file: ./rivers-climatology/bio/R201906_bioConst.nc ok
                     iom_close ~~~ close file: ./rivers-climatology/bio/R201906_bioConst.nc ok
                     iom_close ~~~ close file: ./rivers-climatology/bio/R201906_bioConst.nc ok
                     iom_close ~~~ close file: ./rivers-climatology/bio/R201906_bioConst.nc ok
                     iom_close ~~~ close file: ./rivers-climatology/skog_sens_highFras/rivers_skog_tracers_m01d06.nc ok
                     iom_close ~~~ close file: ./rivers-climatology/skog_sens_highFras/rivers_skog_tracers_m01d06.nc ok
                     iom_close ~~~ close file: ./rivers-climatology/bio/rivers_bio_tracers_m01d06.nc ok
                     iom_close ~~~ close file: ./river_turb/riverTurbDaily201906_y2017m01d06.nc ok
           iom_nf90_rp0123d, file: ./SalishSea_04743360_restart_trc_0000.nc, var: rnf_pis_NO3_b write dimension variables done
           iom_nf90_rp0123d, file: ./SalishSea_04743360_restart_trc_0000.nc, var: rnf_pis_NO3_b written ok
           iom_nf90_rp0123d, file: ./SalishSea_04743360_restart_trc_0000.nc, var: rnf_pis_NH4_b written ok
           iom_nf90_rp0123d, file: ./SalishSea_04743360_restart_trc_0000.nc, var: rnf_pis_Si_b written ok
           iom_nf90_rp0123d, file: ./SalishSea_04743360_restart_trc_0000.nc, var: rnf_pis_DIAT_b written ok
           iom_nf90_rp0123d, file: ./SalishSea_04743360_restart_trc_0000.nc, var: rnf_pis_PHY_b written ok
           iom_nf90_rp0123d, file: ./SalishSea_04743360_restart_trc_0000.nc, var: rnf_pis_MYRI_b written ok
           iom_nf90_rp0123d, file: ./SalishSea_04743360_restart_trc_0000.nc, var: rnf_pis_MICZ_b written ok
           iom_nf90_rp0123d, file: ./SalishSea_04743360_restart_trc_0000.nc, var: rnf_pis_DON_b written ok
           iom_nf90_rp0123d, file: ./SalishSea_04743360_restart_trc_0000.nc, var: rnf_pis_PON_b written ok
           iom_nf90_rp0123d, file: ./SalishSea_04743360_restart_trc_0000.nc, var: rnf_pis_bSi_b written ok
           iom_nf90_rp0123d, file: ./SalishSea_04743360_restart_trc_0000.nc, var: rnf_pis_TRA_b written ok
           iom_nf90_rp0123d, file: ./SalishSea_04743360_restart_trc_0000.nc, var: rnf_pis_DIC_b written ok
           iom_nf90_rp0123d, file: ./SalishSea_04743360_restart_trc_0000.nc, var: rnf_pis_TA_b written ok
           iom_nf90_rp0123d, file: ./SalishSea_04743360_restart_trc_0000.nc, var: rnf_pis_O2_b written ok

  trc_sms_my_trc:  MY_TRC model
  ~~~~~~~~~~~~~~

 sbc : ocean surface tracer content forcing fields written in tracer restart file at it=      4743360  date=     20170105
 ~~~~
           iom_nf90_rp0123d, file: ./SalishSea_04743360_restart_trc_0000.nc, var: sbc_NO3_b written ok
           iom_nf90_rp0123d, file: ./SalishSea_04743360_restart_trc_0000.nc, var: sbc_NH4_b written ok
           iom_nf90_rp0123d, file: ./SalishSea_04743360_restart_trc_0000.nc, var: sbc_Si_b written ok
           iom_nf90_rp0123d, file: ./SalishSea_04743360_restart_trc_0000.nc, var: sbc_DIAT_b written ok
           iom_nf90_rp0123d, file: ./SalishSea_04743360_restart_trc_0000.nc, var: sbc_PHY_b written ok
           iom_nf90_rp0123d, file: ./SalishSea_04743360_restart_trc_0000.nc, var: sbc_MYRI_b written ok
           iom_nf90_rp0123d, file: ./SalishSea_04743360_restart_trc_0000.nc, var: sbc_MICZ_b written ok
           iom_nf90_rp0123d, file: ./SalishSea_04743360_restart_trc_0000.nc, var: sbc_DON_b written ok
           iom_nf90_rp0123d, file: ./SalishSea_04743360_restart_trc_0000.nc, var: sbc_PON_b written ok
           iom_nf90_rp0123d, file: ./SalishSea_04743360_restart_trc_0000.nc, var: sbc_bSi_b written ok
           iom_nf90_rp0123d, file: ./SalishSea_04743360_restart_trc_0000.nc, var: sbc_TRA_b written ok
           iom_nf90_rp0123d, file: ./SalishSea_04743360_restart_trc_0000.nc, var: sbc_DIC_b written ok
           iom_nf90_rp0123d, file: ./SalishSea_04743360_restart_trc_0000.nc, var: sbc_TA_b written ok
           iom_nf90_rp0123d, file: ./SalishSea_04743360_restart_trc_0000.nc, var: sbc_O2_b written ok
           iom_nf90_rp0123d, file: ./SalishSea_04743360_restart_trc_0000.nc, var: sbc_MYTRC1_b written ok
           iom_nf90_rp0123d, file: ./SalishSea_04743360_restart_trc_0000.nc, var: rdttrc1 written ok
           iom_nf90_rp0123d, file: ./SalishSea_04743360_restart_trc_0000.nc, var: TRNNO3 written ok
           iom_nf90_rp0123d, file: ./SalishSea_04743360_restart_trc_0000.nc, var: TRNNH4 written ok
           iom_nf90_rp0123d, file: ./SalishSea_04743360_restart_trc_0000.nc, var: TRNSi written ok
           iom_nf90_rp0123d, file: ./SalishSea_04743360_restart_trc_0000.nc, var: TRNDIAT written ok
           iom_nf90_rp0123d, file: ./SalishSea_04743360_restart_trc_0000.nc, var: TRNPHY written ok
           iom_nf90_rp0123d, file: ./SalishSea_04743360_restart_trc_0000.nc, var: TRNMYRI written ok
           iom_nf90_rp0123d, file: ./SalishSea_04743360_restart_trc_0000.nc, var: TRNMICZ written ok
           iom_nf90_rp0123d, file: ./SalishSea_04743360_restart_trc_0000.nc, var: TRNDON written ok
           iom_nf90_rp0123d, file: ./SalishSea_04743360_restart_trc_0000.nc, var: TRNPON written ok
           iom_nf90_rp0123d, file: ./SalishSea_04743360_restart_trc_0000.nc, var: TRNbSi written ok
           iom_nf90_rp0123d, file: ./SalishSea_04743360_restart_trc_0000.nc, var: TRNTRA written ok
           iom_nf90_rp0123d, file: ./SalishSea_04743360_restart_trc_0000.nc, var: TRNDIC written ok
           iom_nf90_rp0123d, file: ./SalishSea_04743360_restart_trc_0000.nc, var: TRNTA written ok
           iom_nf90_rp0123d, file: ./SalishSea_04743360_restart_trc_0000.nc, var: TRNO2 written ok
           iom_nf90_rp0123d, file: ./SalishSea_04743360_restart_trc_0000.nc, var: TRNMYTRC1 written ok
           iom_nf90_rp0123d, file: ./SalishSea_04743360_restart_trc_0000.nc, var: TRBNO3 written ok
           iom_nf90_rp0123d, file: ./SalishSea_04743360_restart_trc_0000.nc, var: TRBNH4 written ok
           iom_nf90_rp0123d, file: ./SalishSea_04743360_restart_trc_0000.nc, var: TRBSi written ok
           iom_nf90_rp0123d, file: ./SalishSea_04743360_restart_trc_0000.nc, var: TRBDIAT written ok
           iom_nf90_rp0123d, file: ./SalishSea_04743360_restart_trc_0000.nc, var: TRBPHY written ok
           iom_nf90_rp0123d, file: ./SalishSea_04743360_restart_trc_0000.nc, var: TRBMYRI written ok
           iom_nf90_rp0123d, file: ./SalishSea_04743360_restart_trc_0000.nc, var: TRBMICZ written ok
           iom_nf90_rp0123d, file: ./SalishSea_04743360_restart_trc_0000.nc, var: TRBDON written ok
           iom_nf90_rp0123d, file: ./SalishSea_04743360_restart_trc_0000.nc, var: TRBPON written ok
           iom_nf90_rp0123d, file: ./SalishSea_04743360_restart_trc_0000.nc, var: TRBbSi written ok
           iom_nf90_rp0123d, file: ./SalishSea_04743360_restart_trc_0000.nc, var: TRBTRA written ok
           iom_nf90_rp0123d, file: ./SalishSea_04743360_restart_trc_0000.nc, var: TRBDIC written ok
           iom_nf90_rp0123d, file: ./SalishSea_04743360_restart_trc_0000.nc, var: TRBTA written ok
           iom_nf90_rp0123d, file: ./SalishSea_04743360_restart_trc_0000.nc, var: TRBO2 written ok
           iom_nf90_rp0123d, file: ./SalishSea_04743360_restart_trc_0000.nc, var: TRBMYTRC1 written ok

            ----TRACER STAT----             

 tracer nb : 1    name :       NO3    mean :  0.2597876796E+02    min :  0.5416513236E+01    max :  0.3579273714E+02    drift :  0.1801903272E-02 %
 tracer nb : 2    name :       NH4    mean :  0.4955223492E+00    min :  0.0000000000E+00    max :  0.5148522080E+01    drift : -0.4150477829E+01 %
 tracer nb : 3    name :        Si    mean :  0.4666537188E+02    min :  0.2890161176E+02    max :  0.7607739631E+02    drift : -0.2716190657E+00 %
 tracer nb : 4    name :      DIAT    mean :  0.1347027563E-02    min :  0.0000000000E+00    max :  0.5837750599E-01    drift : -0.5028265606E+01 %
 tracer nb : 5    name :       PHY    mean :  0.7271006922E-01    min :  0.0000000000E+00    max :  0.4027026150E+00    drift :  0.1057908364E+02 %
 tracer nb : 6    name :      MYRI    mean :  0.3521383769E-01    min :  0.0000000000E+00    max :  0.1896875832E+00    drift :  0.4493986598E+01 %
 tracer nb : 7    name :      MICZ    mean :  0.1722845369E-01    min :  0.0000000000E+00    max :  0.2133666981E+00    drift : -0.1759583095E+01 %
 tracer nb : 8    name :       DON    mean :  0.2716291730E-01    min :  0.2607048200E-06    max :  0.3426841795E+00    drift : -0.2180219187E+01 %
 tracer nb : 9    name :       PON    mean :  0.1877984614E-01    min :  0.2539668166E-06    max :  0.1113015106E+00    drift :  0.1917508852E+01 %
 tracer nb :10    name :       bSi    mean :  0.2598319184E-02    min :  0.2425743329E-06    max :  0.1994149293E+00    drift : -0.8980008562E+01 %
 tracer nb :11    name :       TRA    mean :  0.2698191117E+00    min :  0.3920000845E-03    max :  0.5177972491E+01    drift : -0.1912669827E+01 %
 tracer nb :12    name :       DIC    mean :  0.2094910437E+04    min :  0.5887485592E+03    max :  0.2306361777E+04    drift : -0.8995961052E+00 %
 tracer nb :13    name :        TA    mean :  0.2150549628E+04    min :  0.5523641200E+03    max :  0.2320025620E+04    drift : -0.9546874730E+00 %
 tracer nb :14    name :        O2    mean :  0.1554285598E+03    min :  0.4663655105E+01    max :  0.4074167556E+03    drift : -0.7817624656E+00 %
 tracer nb :15    name :    MYTRC1    mean :  0.1274666554E+24    min :  0.0000000000E+00    max :  0.2300342069E+26    drift : -0.9951658660E+02 %

                     iom_close ~~~ close file: ./SalishSea_04743360_restart_trc_0000.nc ok

 sbc : ocean surface tracer content forcing fields written in ocean restart file at it=      4743360  date=     20170105
 ~~~~
           iom_nf90_rp0123d, file: ./SalishSea_04743360_restart_0000.nc, var: sbc_hc_b written ok
           iom_nf90_rp0123d, file: ./SalishSea_04743360_restart_0000.nc, var: sbc_sc_b written ok

 qsr tracer content forcing field written in ocean restart file at it=      4743360  date=     20170105
 ~~~~
           iom_nf90_rp0123d, file: ./SalishSea_04743360_restart_0000.nc, var: qsr_hc_b written ok
           iom_nf90_rp0123d, file: ./SalishSea_04743360_restart_0000.nc, var: fraqsr_1lev written ok
 ---- dom_vvl_rst ----
           iom_nf90_rp0123d, file: ./SalishSea_04743360_restart_0000.nc, var: fse3t_b written ok
           iom_nf90_rp0123d, file: ./SalishSea_04743360_restart_0000.nc, var: fse3t_n written ok
           iom_nf90_rp0123d, file: ./SalishSea_04743360_restart_0000.nc, var: rdt written ok
           iom_nf90_rp0123d, file: ./SalishSea_04743360_restart_0000.nc, var: rdttra1 written ok
           iom_nf90_rp0123d, file: ./SalishSea_04743360_restart_0000.nc, var: ub written ok
           iom_nf90_rp0123d, file: ./SalishSea_04743360_restart_0000.nc, var: vb written ok
           iom_nf90_rp0123d, file: ./SalishSea_04743360_restart_0000.nc, var: tb written ok
           iom_nf90_rp0123d, file: ./SalishSea_04743360_restart_0000.nc, var: sb written ok
           iom_nf90_rp0123d, file: ./SalishSea_04743360_restart_0000.nc, var: rotb written ok
           iom_nf90_rp0123d, file: ./SalishSea_04743360_restart_0000.nc, var: hdivb written ok
           iom_nf90_rp0123d, file: ./SalishSea_04743360_restart_0000.nc, var: sshb written ok
           iom_nf90_rp0123d, file: ./SalishSea_04743360_restart_0000.nc, var: un written ok
           iom_nf90_rp0123d, file: ./SalishSea_04743360_restart_0000.nc, var: vn written ok
           iom_nf90_rp0123d, file: ./SalishSea_04743360_restart_0000.nc, var: tn written ok
           iom_nf90_rp0123d, file: ./SalishSea_04743360_restart_0000.nc, var: sn written ok
           iom_nf90_rp0123d, file: ./SalishSea_04743360_restart_0000.nc, var: rotn written ok
           iom_nf90_rp0123d, file: ./SalishSea_04743360_restart_0000.nc, var: hdivn written ok
           iom_nf90_rp0123d, file: ./SalishSea_04743360_restart_0000.nc, var: sshn written ok
           iom_nf90_rp0123d, file: ./SalishSea_04743360_restart_0000.nc, var: rhop written ok
                     iom_close ~~~ close file: ./SalishSea_04743360_restart_0000.nc ok

AAAAAAAA

